/*--------------------------------*- C++ -*----------------------------------*\
| =========                 |                                                 |
| \\      /  F ield         | OpenFOAM: The Open Source CFD Toolbox           |
|  \\    /   O peration     | Version:  1.5                                   |
|   \\  /    A nd           | Web:      http://www.OpenFOAM.org               |
|    \\/     M anipulation  |                                                 |
\*---------------------------------------------------------------------------*/
FoamFile
{
    version     2.0;
    format      ascii;
    class       dictionary;
    object      stlDefinitions;
}
// * * * * * * * * * * * * * * * * * * * * * * * * * * * * * * * * * * * * * //

dikeprofile
{
    points 19( 
		( 0.00  7.88 0)
		( 2.49  7.88 0)
		( 4.81  7.67 0)
		( 6.38  7.34 0)
		( 9.33  6.46 0)
		( 12.26 5.47 0)
		( 14.77 4.54 0)
		( 17.06 3.62 0)
		( 18.65 2.95 0)
		( 21.01 1.89 0)
		( 22.46 1.34 0)
		( 23.22 1.25 0)
		( 24.37 0.99 0)
		( 27.04 0.90 0)
		( 28.28 0.85 0)
		( 31.85 0.54 0)
		( 32.40 0.47 0) 
		( 33.45 0.00 0)
		( 0.00 0.000 0)	
 		);
    faces 1( (18 17 16 15 14 13 12 11 10 9 8 7 6 5 4 3 2 1 0) );

    extrude true;
    extrudeVector (0.0 0.0 1.0);

    
}

// ************************************************************************* //
