/*--------------------------------*- C++ -*----------------------------------*\
| =========                 |                                                 |
| \\      /  F ield         | OpenFOAM: The Open Source CFD Toolbox           |
|  \\    /   O peration     | Version:  1.5                                   |
|   \\  /    A nd           | Web:      http://www.OpenFOAM.org               |
|    \\/     M anipulation  |                                                 |
\*---------------------------------------------------------------------------*/
FoamFile
{
    version     2.0;
    format      ascii;
    class       dictionary;
    object      stlDefinitions;
}
// * * * * * * * * * * * * * * * * * * * * * * * * * * * * * * * * * * * * * //

dikeprofile
{
    points 24( 
		( 0.00 5.69 0)
		( 1.01 5.64 0)
		( 2.22 5.58 0)
		( 3.37 5.21 0)
		( 4.51 4.85 0)
		( 5.51 4.52 0)
		( 6.51 4.20 0)
		( 7.51 3.85 0)
		( 8.51 3.50 0)
		( 9.51 3.17 0)
		(10.51 2.82 0)
		(11.51 2.46 0)
		(12.51 2.08 0)
		(13.51 1.72 0)
		(14.51 1.46 0)
		(15.51 1.13 0)
		(16.51 0.88 0)
		(17.52 0.64 0)
		(18.52 0.41 0)
		(19.52 0.21 0)
		(20.52 0.03 0)		
		(21.52 0.09 0)
		(22.52 0.00 0)
		( 0.00 0.00 0)	
 		);
    faces 1( (23 22 21 20 19 18 17 16 15 14 13 12 11 10 9 8 7 6 5 4 3 2 1 0) );

    extrude true;
    extrudeVector (0.0 0.0 1.0);

    
}

// ************************************************************************* //
